Version 4
SHEET 1 1356 788
WIRE 304 -192 112 -192
WIRE 688 -192 352 -192
WIRE 112 -144 112 -192
WIRE 288 -144 112 -144
WIRE 400 -144 368 -144
WIRE 112 -16 112 -144
WIRE 496 -16 112 -16
WIRE -240 80 -432 80
WIRE -160 80 -240 80
WIRE 112 80 112 -16
WIRE 112 80 -80 80
WIRE 224 80 112 80
WIRE 400 80 400 -144
WIRE 400 80 304 80
WIRE 416 80 400 80
WIRE 688 112 688 -192
WIRE -432 144 -432 80
WIRE -240 160 -240 80
WIRE -16 160 -240 160
WIRE 496 160 496 -16
WIRE 416 176 416 80
WIRE 416 176 320 176
WIRE 464 176 416 176
WIRE 640 192 528 192
WIRE 64 208 64 160
WIRE 464 208 64 208
WIRE 64 224 64 208
WIRE -432 336 -432 224
WIRE 64 336 64 304
WIRE 64 336 -432 336
WIRE 416 336 64 336
WIRE 496 336 496 224
WIRE 496 336 416 336
WIRE 688 336 688 208
WIRE 688 336 496 336
WIRE 320 448 320 176
WIRE 352 448 320 448
WIRE 416 448 416 336
SYMBOL cap 352 464 R270
WINDOW 0 32 32 VTop 2
WINDOW 3 0 32 VBottom 2
SYMATTR InstName Cap_array
SYMATTR Value 1
SYMBOL voltage -432 128 R0
WINDOW 123 0 0 Left 2
WINDOW 39 0 0 Left 2
WINDOW 0 -95 62 Left 2
WINDOW 3 -56 94 Left 2
SYMATTR InstName VBAT
SYMATTR Value 24
SYMBOL res 208 96 R270
WINDOW 0 32 56 VTop 2
WINDOW 3 0 56 VBottom 2
SYMATTR InstName TEH70
SYMATTR Value 10
SYMBOL res -32 176 R270
WINDOW 0 32 56 VTop 2
WINDOW 3 0 56 VBottom 2
SYMATTR InstName R1
SYMATTR Value 10k
SYMBOL res 48 208 R0
SYMATTR InstName R2
SYMATTR Value 230k
SYMBOL nmos 640 112 R0
WINDOW 0 -2 18 Right 2
WINDOW 3 81 -12 Right 2
SYMATTR InstName Q1
SYMATTR Value STW11NM80
SYMBOL csw -160 80 R270
WINDOW 0 32 40 VTop 2
WINDOW 3 -32 40 VBottom 2
SYMATTR InstName Toggle_Switch
SYMATTR Value ""
SYMBOL dashed_line -32 352 R0
SYMATTR InstName X3
SYMBOL dashed_line 96 -64 R90
SYMATTR InstName X4
SYMBOL dashed_line 352 -64 R90
SYMATTR InstName X5
SYMBOL dashed_line 464 -224 R270
SYMATTR InstName X7
SYMBOL dashed_line 208 -224 R270
SYMATTR InstName X8
SYMBOL dashed_line -208 -16 R90
SYMATTR InstName X10
SYMBOL dashed_line -368 -16 R90
SYMATTR InstName X11
SYMBOL dashed_line -464 -16 R90
SYMATTR InstName X12
SYMBOL dashed_line -544 160 R180
SYMATTR InstName X13
SYMBOL dashed_line -544 64 R180
SYMATTR InstName X14
SYMBOL dashed_line -160 448 R270
SYMATTR InstName X15
SYMBOL dashed_line -96 448 R270
SYMATTR InstName X16
SYMBOL dashed_line -544 272 R0
SYMATTR InstName X17
SYMBOL dashed_line -544 368 R0
SYMATTR InstName X18
SYMBOL dashed_line -352 448 R270
SYMATTR InstName X19
SYMBOL dashed_line -320 448 R270
SYMATTR InstName X20
SYMBOL dashed_line2 544 -144 R0
SYMATTR InstName X6
SYMBOL dashed_line2 -32 80 R0
SYMATTR InstName X1
SYMBOL dashed_line2 16 -144 R0
SYMATTR InstName X9
SYMBOL TL331 496 192 R0
SYMATTR InstName IC1
SYMBOL Relay2 336 -160 R180
WINDOW 0 -104 -1 Left 2
WINDOW 3 -134 -30 Left 2
SYMATTR InstName Relay3
SYMATTR Value SAS-4410
SYMBOL dashed_line2 192 464 R0
SYMATTR InstName X2
SYMBOL dashed_line2 560 464 R0
SYMATTR InstName X21
SYMBOL dashed_line2 272 368 R90
SYMATTR InstName X22
SYMBOL dashed_line2 432 368 R90
SYMATTR InstName X23
SYMBOL dashed_line2 464 368 R90
SYMATTR InstName X24
SYMBOL dashed_line2 464 544 R90
SYMATTR InstName X25
SYMBOL dashed_line2 304 544 R90
SYMATTR InstName X26
SYMBOL dashed_line2 272 544 R90
SYMATTR InstName X27
TEXT 104 -248 Left 2 ;Off-board, high current relay
TEXT 232 504 Left 2 ;Off-board capacitor array
