Version 4
SHEET 1 1356 788
WIRE 304 -192 112 -192
WIRE 688 -192 352 -192
WIRE 288 -144 240 -144
WIRE 400 -144 368 -144
WIRE 112 -16 112 -192
WIRE 496 -16 112 -16
WIRE -224 80 -432 80
WIRE -160 80 -224 80
WIRE 112 80 112 -16
WIRE 112 80 -80 80
WIRE 240 80 240 -144
WIRE 240 80 112 80
WIRE 272 80 240 80
WIRE 400 80 400 -144
WIRE 400 80 352 80
WIRE 416 80 400 80
WIRE -224 112 -224 80
WIRE 688 112 688 -192
WIRE -432 144 -432 80
WIRE 496 160 496 -16
WIRE 416 176 416 80
WIRE 464 176 416 176
WIRE 640 192 528 192
WIRE -224 208 -224 192
WIRE 464 208 -224 208
WIRE -224 224 -224 208
WIRE 416 240 416 176
WIRE -432 336 -432 224
WIRE -224 336 -224 304
WIRE -224 336 -432 336
WIRE 416 336 416 304
WIRE 416 336 -224 336
WIRE 496 336 496 224
WIRE 496 336 416 336
WIRE 688 336 688 208
WIRE 688 336 496 336
SYMBOL cap 400 240 R0
WINDOW 0 -109 11 Left 2
WINDOW 3 22 10 Left 2
SYMATTR InstName Cap_array
SYMATTR Value 1
SYMBOL voltage -432 128 R0
WINDOW 123 0 0 Left 2
WINDOW 39 0 0 Left 2
WINDOW 0 -95 62 Left 2
WINDOW 3 -56 94 Left 2
SYMATTR InstName VBAT
SYMATTR Value 24
SYMBOL res 256 96 R270
WINDOW 0 32 56 VTop 2
WINDOW 3 0 56 VBottom 2
SYMATTR InstName TEH70
SYMATTR Value 10
SYMBOL res -240 96 R0
SYMATTR InstName R1
SYMATTR Value 10k
SYMBOL res -240 208 R0
SYMATTR InstName R2
SYMATTR Value 230k
SYMBOL nmos 640 112 R0
WINDOW 0 -2 18 Right 2
WINDOW 3 81 -12 Right 2
SYMATTR InstName Q1
SYMATTR Value STW11NM80
SYMBOL csw -160 80 R270
WINDOW 0 32 40 VTop 2
WINDOW 3 -32 40 VBottom 2
SYMATTR InstName Toggle_Switch
SYMATTR Value ""
SYMBOL dashed_line 16 368 R0
SYMATTR InstName X3
SYMBOL dashed_line 96 -64 R90
SYMATTR InstName X4
SYMBOL dashed_line 352 -64 R90
SYMATTR InstName X5
SYMBOL dashed_line 464 -224 R270
SYMATTR InstName X7
SYMBOL dashed_line 208 -224 R270
SYMATTR InstName X8
SYMBOL dashed_line -176 -16 R90
SYMATTR InstName X10
SYMBOL dashed_line -368 -16 R90
SYMATTR InstName X11
SYMBOL dashed_line -464 -16 R90
SYMATTR InstName X12
SYMBOL dashed_line -544 160 R180
SYMATTR InstName X13
SYMBOL dashed_line -544 64 R180
SYMATTR InstName X14
SYMBOL dashed_line -160 448 R270
SYMATTR InstName X15
SYMBOL dashed_line -64 448 R270
SYMATTR InstName X16
SYMBOL dashed_line -544 272 R0
SYMATTR InstName X17
SYMBOL dashed_line -544 368 R0
SYMATTR InstName X18
SYMBOL dashed_line -352 448 R270
SYMATTR InstName X19
SYMBOL dashed_line -320 448 R270
SYMATTR InstName X20
SYMBOL dashed_line2 544 -144 R0
SYMATTR InstName X6
SYMBOL dashed_line2 16 112 R0
SYMATTR InstName X1
SYMBOL dashed_line2 16 80 R0
SYMATTR InstName X2
SYMBOL dashed_line2 16 -144 R0
SYMATTR InstName X9
SYMBOL TL331 496 192 R0
SYMATTR InstName IC1
SYMBOL Relay2 336 -160 R180
WINDOW 0 -104 -1 Left 2
WINDOW 3 -134 -30 Left 2
SYMATTR InstName Relay3
SYMATTR Value SAS-4410
TEXT 104 -248 Left 2 ;Off-board, high current relay
TEXT 264 296 Left 2 ;Off-board capacitor array
