Version 4
SHEET 1 908 680
WIRE 192 112 -32 112
WIRE 288 112 272 112
WIRE 320 112 288 112
WIRE 288 160 288 112
WIRE -32 176 -32 112
WIRE -32 272 -32 256
WIRE 192 272 -32 272
WIRE 288 272 288 224
WIRE 288 272 192 272
WIRE 320 272 288 272
FLAG 192 272 0
FLAG 320 112 Vout
SYMBOL cap 272 160 R0
SYMATTR InstName C1
SYMATTR Value 0.1µ
SYMATTR SpiceLine Rser=1
SYMBOL res 176 128 R270
WINDOW 0 32 56 VTop 2
WINDOW 3 0 56 VBottom 2
SYMATTR InstName R1
SYMATTR Value 200
SYMBOL voltage -32 160 R0
WINDOW 123 0 0 Left 2
WINDOW 39 0 0 Left 2
SYMATTR InstName V1
SYMATTR Value PULSE(0 3.3 0 10n 10n 0.5m 1m 5)
TEXT -32 288 Left 2 !.tran 0.01
